LTspice 24.1.5 for Windows
Circuit: C:\Users\gabri\Desktop\ELO-IV\Lab1\Exp1.net
Start Time: Wed Aug 20 20:09:36 2025
solver = Normal
Maximum thread count: 8
tnom = 27
temp = 27
method = modified trap
CompressWinPoints = 4096
CompressRelTol = 0.001
Direct Newton iteration for .op point succeeded.
.step ve=0.5
.step ve=1
.step ve=1.5
Total elapsed time: 0.104 seconds.

Files loaded:
C:\Users\gabri\Desktop\ELO-IV\Lab1\Exp1.net
C:\Users\gabri\OneDrive\Documentos\LTspiceXVII\lib\sub\LM741.lib


Measurement: Vs_pp
  step	PP(V(Vs))	FROM	TO
     1	0.994165986776	0	0.015
     2	1.98822921515	0	0.015
     3	2.98250472546	0	0.015

Measurement: Ve_pp
  step	PP(V(Ve))	FROM	TO
     1	0.999994248152	0	0.015
     2	1.99997347593	0	0.015
     3	2.99998724461	0	0.015
