LTspice 24.1.9 for Windows
Circuit: C:\Users\dout\Desktop\ELO-IV\Lab1\Exp3.net
Start Time: Wed Aug 27 20:07:42 2025
solver = Normal
Maximum thread count: 36
tnom = 27
temp = 27
method = trap
Direct Newton iteration for .op point succeeded.
.step ve=0.5
.step ve=1
.step ve=1.5
Total elapsed time: 0.260 seconds.

Files loaded:
C:\Users\dout\Desktop\ELO-IV\Lab1\Exp3.net
C:\Users\dout\Documents\LTspice\lib\sub\LM741.lib


Measurement: vs_pp
  step	PP(V(Vs))	FROM	TO
     1	1.19995468855	0	0.015
     2	2.39946568012	0	0.015
     3	3.59823346138	0	0.015

Measurement: ve_pp
  step	PP(V(Ve))	FROM	TO
     1	0.999950557947	0	0.015
     2	1.99956542253	0	0.015
     3	2.99844682217	0	0.015
