LTspice 24.1.5 for Windows
Circuit: C:\Users\gabri\Desktop\ELO-IV\Lab1\Exp3.net
Start Time: Wed Aug 20 20:24:51 2025
solver = Normal
Maximum thread count: 8
tnom = 27
temp = 27
method = modified trap
CompressWinPoints = 4096
CompressRelTol = 0.001
Direct Newton iteration for .op point succeeded.
.step ve=0.5
.step ve=1
.step ve=1.5
Total elapsed time: 0.114 seconds.

Files loaded:
C:\Users\gabri\Desktop\ELO-IV\Lab1\Exp3.net
C:\Users\gabri\OneDrive\Documentos\LTspiceXVII\lib\sub\LM741.lib


Measurement: Vs_pp
  step	PP(V(Vs))	FROM	TO
     1	0.994071751833	0	0.015
     2	1.98794579506	0	0.015
     3	2.98233294487	0	0.015

Measurement: Ve_pp
  step	PP(V(Ve))	FROM	TO
     1	0.999909102917	0	0.015
     2	1.99970304966	0	0.015
     3	2.99991416931	0	0.015
