LTspice 24.1.5 for Windows
Circuit: C:\Users\gabri\Desktop\ELO-IV\Lab1\Exp4.net
Start Time: Wed Aug 20 20:35:36 2025
solver = Normal
Maximum thread count: 8
tnom = 27
temp = 27
method = modified trap
CompressWinPoints = 4096
CompressRelTol = 0.001
Direct Newton iteration for .op point succeeded.
.step ve=0.5
.step ve=1
.step ve=1.5
Total elapsed time: 0.137 seconds.

Files loaded:
C:\Users\gabri\Desktop\ELO-IV\Lab1\Exp4.net
C:\Users\gabri\OneDrive\Documentos\LTspiceXVII\lib\sub\LM741.lib


Measurement: Ve_pp
  step	PP(V(Ve))	FROM	TO
     1	0.999815195799	0	0.015
     2	1.99911111593	0	0.015
     3	2.99992322922	0	0.015

Measurement: Vs1_pp
  step	PP(V(Vs1))	FROM	TO
     1	1.8222156167	0	0.015
     2	3.64414095879	0	0.015
     3	5.46742391586	0	0.015

Measurement: Vs2_pp
  step	PP(V(Vs2))	FROM	TO
     1	5.71540045738	0	0.015
     2	11.4297995567	0	0.015
     3	17.1483316422	0	0.015
