LTspice 24.1.5 for Windows
Circuit: C:\Users\gabri\Desktop\ELO-IV\Lab5\exp1.net
Start Time: Wed Oct 15 17:33:30 2025
solver = Normal
Maximum thread count: 8
tnom = 27
temp = 27
method = modified trap
CompressWinPoints = 4096
CompressRelTol = 0.001
Direct Newton iteration for .op point succeeded.
Total elapsed time: 0.108 seconds.

Files loaded:
C:\Users\gabri\Desktop\ELO-IV\Lab5\exp1.net
C:\Users\gabri\AppData\Local\LTspice\lib\cmp\standard.bjt

Ic1: AVG(Ic(Q1))=0.00631789252725 FROM 0 TO 0.005
Ic2: AVG(Ic(Q2))=0.00202082338683 FROM 0 TO 0.005
Vce1: AVG(V(c1) - V(e1))=4.1283232522 FROM 0 TO 0.005
Vce2: AVG(V(c2) - V(e2))=5.97935493635 FROM 0 TO 0.005
Ib1: AVG(Ib(Q1))=2.05869320808e-05 FROM 0 TO 0.005
Ib2: AVG(Ib(Q2))=6.76511249711e-06 FROM 0 TO 0.005
Vout: PP(V(out))=0.192808136344 FROM 0 TO 0.005
Vin: PP(V(in))=0.00199995294679 FROM 0 TO 0.005
TotalGain: Vout/Vin=96.4063362858
Vmid: PP(V(c1))=0.00126552581787 FROM 0 TO 0.005
Stage1Gain: -Vmid/Vin=-0.632777796049
Stage2Gain: Vout/Vmid=152.354170592
