LTspice 24.1.5 for Windows
Circuit: C:\Users\gabri\Desktop\ELO-IV\Lab2\lab2.net
Start Time: Wed Aug 27 20:14:14 2025
Options: meascplxfmt=cartesian
solver = Normal
Maximum thread count: 8
tnom = 27
temp = 27
method = modified trap
CompressWinPoints = 4096
CompressRelTol = 0.001
Direct Newton iteration for .op point succeeded.
.step r1=10000
.step r1=4700
.step r1=1000
Total elapsed time: 0.097 seconds.

Files loaded:
C:\Users\gabri\Desktop\ELO-IV\Lab2\lab2.net
C:\Users\gabri\OneDrive\Documentos\LTspiceXVII\lib\sub\LM741.lib


Measurement: Vo
  step	MAX(MAG(V(out)))	FROM	TO
     1	(0.999988522437,0)	1000	10000000
     2	(2.12761769616,0)	1000	10000000
     3	(9.99886358464,0)	1000	10000000

Measurement: fc
  step	frequency	at
     1	(634650.481051,0)	634650.481051
     2	(367141.207039,0)	367141.207039
     3	(93112.279686,0)	93112.279686

Measurement: GainMAX
  step	MAX(MAG(V(out))/MAG(V(in)))	FROM	TO
     1	(0.999988522437,0)	1000	10000000
     2	(2.12761769616,0)	1000	10000000
     3	(9.99886358464,0)	1000	10000000

Measurement: GainMAXdB
  step	20*log10(MAG(GainMAX))
     1	(-9.9693421274e-05,0)
     2	(6.55787187693,0)
     3	(19.9990128661,0)

Measurement: R
  step	R1
     1	(10000,0)
     2	(4700,0)
     3	(1000,0)

Measurement: PGL
  step	GainMAX*fc
     1	(634643.19681,0)
     2	(781136.129085,0)
     3	(931016.982635,0)
