LTspice 24.1.5 for Windows
Circuit: C:\Users\gabri\Desktop\ELO-IV\Lab3\Exp1b.net
Start Time: Wed Sep  3 23:48:15 2025
solver = Normal
Maximum thread count: 8
tnom = 27
temp = 27
method = modified trap
CompressWinPoints = 4096
CompressRelTol = 0.001
Direct Newton iteration for .op point succeeded.
Total elapsed time: 0.080 seconds.

Files loaded:
C:\Users\gabri\Desktop\ELO-IV\Lab3\Exp1b.net
C:\Users\gabri\OneDrive\Documentos\LTspiceXVII\lib\sub\LM741.lib

Vs_pp: PP(V(Vs))=5.98520862402 FROM 0 TO 0.006
Ve_pp: PP(V(Ve))=1.99976125436 FROM 0 TO 0.006
Av: Vs_pp/Ve_pp=2.99296159028
