LTspice 24.1.5 for Windows
Circuit: C:\Users\gabri\Desktop\ELO-IV\Lab3\Exp1c.net
Start Time: Wed Sep  3 23:58:11 2025
Options: cshunt=1e-15
solver = Normal
Maximum thread count: 8
tnom = 27
temp = 27
method = modified trap
CompressWinPoints = 4096
CompressRelTol = 0.001
Direct Newton iteration for .op point succeeded.
Total elapsed time: 0.599 seconds.

Files loaded:
C:\Users\gabri\Desktop\ELO-IV\Lab3\Exp1c.net
C:\Users\gabri\OneDrive\Documentos\LTspiceXVII\lib\sub\LM741.lib

Vs_pp: PP(V(Vs))=0.00443474698584 FROM 0 TO 0.006
Ve_pp: PP(V(Ve))=1.99988925457 FROM 0 TO 0.006
Av: Vs_pp/Ve_pp=0.00221749628171
